Power Systems Analysis/dr rahimian/HW/HW05/MatlabHW/Solution/data.m
% A 6-bus system data


%       No  type PG  QG  QGmax  QGmin  PD  QD     V
bus_data=[1  1  0.0  0.0  2.0  -2.0   0.6  0.25  1.0
          2  2  1.4  0.0  1.4  -1.0   0.5  0.20  1.05
          3  3  0.0  0.0  0.0   0.0   0.4  0.15  1.0
          4  3  0.0  0.0  0.0   0.0   0.4  0.15  1.0
          5  3  0.0  0.0  0.0   0.0   0.5  0.20  1.0
          6  3  0.2  0.1  0.2  -0.1   0.5  0.20  1.0];
      
      
      
      
%       NO  From To  R+jX   Capacity Bc
line_data=[1  1  2  0.1+0.170j   2   0
           2  1  4  0.15+0.258j  1   0
           3  2  4  0.12+0.197j  2   0
           4  5  6  0.08+0.140j  1   0 
           5  3  6  0.01+0.018j  1   0
           6  2  3  0.02+0.037j  2   0
           7  4  5  0.02+0.037j  2   0];
    